@<TRIPOS>MOLECULE
TPX
   52    56     1     0     0
SMALL
bcc


@<TRIPOS>ATOM
      1 F1          53.3320    18.6600    38.5200 f        310 TPX      -0.232800
      2 F2          55.3670    19.3650    39.0890 f        310 TPX      -0.232800
      3 F3          56.2050    25.6030    36.3920 f        310 TPX      -0.141900
      4 O4          51.5560    21.1390    37.9120 os       310 TPX      -0.295900
      5 O5          56.2570    20.8730    33.6350 os       310 TPX      -0.320900
      6 O6          52.6700    19.2760    30.6810 o        310 TPX      -0.603100
      7 N7          54.0920    20.8450    36.8380 nh       310 TPX      -0.771300
      8 N8          54.2310    19.5480    32.2420 n        310 TPX      -0.529900
      9 N9          50.8090    19.9260    34.6300 na       310 TPX       0.037200
     10 N10         53.1850    20.0950    34.8410 nc       310 TPX      -0.708000
     11 N11         49.8520    19.5770    33.7560 nc       310 TPX      -0.566100
     12 C12         53.9540    21.0990    38.2610 c3       310 TPX       0.155500
     13 C13         55.4630    20.7610    36.3800 c3       310 TPX       0.279100
     14 C14         55.5780    19.5260    31.6380 c3       310 TPX       0.120400
     15 C15         52.6630    21.8530    38.5400 c3       310 TPX       0.114400
     16 C16         52.9660    20.4680    36.0980 cd       310 TPX       0.696200
     17 C17         51.6490    20.7640    36.5930 cd       310 TPX      -0.104200
     18 C18         54.0740    19.7380    39.0420 c3       310 TPX       0.388900
     19 C19         55.9830    22.0370    35.6660 ca       310 TPX      -0.123300
     20 C20         56.3040    20.8110    32.1680 c3       310 TPX       0.093400
     21 C21         52.0390    19.9220    34.1260 cc       310 TPX       0.418500
     22 C22         50.4740    20.5780    35.8070 cc       310 TPX       0.009700
     23 C23         56.4000    21.9910    34.3320 ca       310 TPX       0.154100
     24 C24         55.4850    19.4830    30.0820 c3       310 TPX      -0.098600
     25 C25         56.3470    18.2930    32.2170 c3       310 TPX      -0.098600
     26 C26         51.9410    19.6300    32.8250 cd       310 TPX      -0.366800
     27 C27         52.9660    19.5180    31.7950 c        310 TPX       0.713300
     28 C28         55.9190    23.3280    36.3490 ca       310 TPX      -0.131000
     29 C29         50.5220    19.3780    32.6110 cd       310 TPX       0.447500
     30 C30         56.8170    23.1480    33.7040 ca       310 TPX      -0.182000
     31 C31         56.3980    24.4610    35.7640 ca       310 TPX       0.084900
     32 C32         56.7860    24.3620    34.3810 ca       310 TPX      -0.116000
     33 H33         54.7380    21.8170    38.5320 h1       310 TPX       0.084700
     34 H34         55.6760    19.9520    35.6700 h1       310 TPX       0.086200
     35 H35         56.0650    20.5070    37.2610 h1       310 TPX       0.086200
     36 H36         52.4260    21.8070    39.6100 h1       310 TPX       0.078200
     37 H37         52.6870    22.9070    38.2370 h1       310 TPX       0.078200
     38 H38         53.8110    19.9420    40.0870 h2       310 TPX       0.069700
     39 H39         57.3300    20.8810    31.7870 h1       310 TPX       0.052200
     40 H40         55.6870    21.6420    31.8060 h1       310 TPX       0.052200
     41 H41         54.2390    19.7330    33.2380 hn       310 TPX       0.311500
     42 H42         49.4520    20.7120    36.1370 h4       310 TPX       0.200000
     43 H43         54.8460    20.2280    29.5920 hc       310 TPX       0.050367
     44 H44         56.4300    19.6360    29.5460 hc       310 TPX       0.050367
     45 H45         55.2390    18.4820    29.7070 hc       310 TPX       0.050367
     46 H46         57.4120    18.5300    32.3320 hc       310 TPX       0.050367
     47 H47         55.9900    17.9810    33.2060 hc       310 TPX       0.050367
     48 H48         56.1310    17.4410    31.5620 hc       310 TPX       0.050367
     49 H49         55.6060    23.2800    37.3870 ha       310 TPX       0.138000
     50 H50         50.0100    19.1050    31.6980 h4       310 TPX       0.070800
     51 H51         57.0770    23.1190    32.6500 ha       310 TPX       0.149000
     52 H52         57.0260    25.3140    33.9180 ha       310 TPX       0.153000
@<TRIPOS>BOND
     1     1    18 1   
     2     2    18 1   
     3     3    31 1   
     4     4    15 1   
     5     4    17 1   
     6     5    20 1   
     7     5    23 1   
     8     6    27 2   
     9     7    12 1   
    10     7    13 1   
    11     7    16 1   
    12     8    14 1   
    13     8    27 1   
    14     8    41 1   
    15     9    11 1   
    16     9    21 1   
    17     9    22 1   
    18    10    16 2   
    19    10    21 1   
    20    11    29 2   
    21    12    15 1   
    22    12    18 1   
    23    12    33 1   
    24    13    19 1   
    25    13    34 1   
    26    13    35 1   
    27    14    20 1   
    28    14    24 1   
    29    14    25 1   
    30    15    36 1   
    31    15    37 1   
    32    16    17 1   
    33    17    22 2   
    34    18    38 1   
    35    19    23 ar  
    36    19    28 ar  
    37    20    39 1   
    38    20    40 1   
    39    21    26 2   
    40    22    42 1   
    41    23    30 ar  
    42    24    43 1   
    43    24    44 1   
    44    24    45 1   
    45    25    46 1   
    46    25    47 1   
    47    25    48 1   
    48    26    27 1   
    49    26    29 1   
    50    28    31 ar  
    51    28    49 1   
    52    29    50 1   
    53    30    32 ar  
    54    30    51 1   
    55    31    32 ar  
    56    32    52 1   
@<TRIPOS>SUBSTRUCTURE
     1 TPX         1 TEMP              0 ****  ****    0 ROOT
